LTspice 24.0.12 for Windows
Circuit: * C:\Users\ASUS\Documents\Electronics\Filters Design\High Pass Filter\second order design.asc
Start Time: Tue May 21 15:33:35 2024
solver = Normal
Maximum thread count: 16
tnom = 27
temp = 27
method = modified trap
.OP point found by inspection.
Total elapsed time: 0.089 seconds.

