LTspice 24.0.12 for Windows
Circuit: * C:\Users\ASUS\Documents\Electronics\Filters Design\High Pass Filter\Draft1.asc
Start Time: Tue May 21 16:01:29 2024
Error on line 4 : r1 n002 n001 1.6 k
	 Unknown parameter "k"
solver = Normal
Maximum thread count: 16
tnom = 27
temp = 27
method = modified trap
.OP point found by inspection.
Total elapsed time: 0.091 seconds.

