LTspice 24.0.12 for Windows
Circuit: * C:\Users\ASUS\Documents\Electronics\Filters Design\Low Pass Filter\capacitive design.asc
Start Time: Tue May 21 14:39:16 2024
solver = Normal
Maximum thread count: 16
tnom = 27
temp = 27
method = modified trap
.OP point found by inspection.
Total elapsed time: 0.106 seconds.

